Version 4
SHEET 1 2148 1108
WIRE 1088 -208 -160 -208
WIRE 1408 -16 304 -16
WIRE 112 32 112 -64
WIRE 1408 64 1408 -16
WIRE 1408 64 1376 64
WIRE 1216 80 1184 80
WIRE 1312 80 1280 80
WIRE 1424 96 1376 96
WIRE 112 144 112 112
WIRE 256 144 112 144
WIRE 304 144 304 -16
WIRE 304 144 256 144
WIRE 336 144 304 144
WIRE 512 144 416 144
WIRE 624 144 512 144
WIRE 752 144 704 144
WIRE 816 144 752 144
WIRE 896 144 816 144
WIRE 1088 144 1088 -208
WIRE 1088 144 976 144
WIRE -592 176 -592 96
WIRE 112 192 112 144
WIRE 512 192 512 144
WIRE 816 192 816 144
WIRE 1088 192 1088 144
WIRE -160 240 -160 -208
WIRE 48 240 -160 240
WIRE -592 336 -592 256
WIRE 112 352 112 288
WIRE 512 352 512 256
WIRE 512 352 112 352
WIRE 816 352 816 256
WIRE 816 352 512 352
WIRE 1088 352 1088 256
WIRE 1088 352 816 352
WIRE 1424 416 1424 96
WIRE 112 448 112 352
WIRE 752 480 752 144
WIRE 256 496 256 144
WIRE 752 640 752 560
WIRE 256 688 256 576
WIRE 400 688 256 688
WIRE 688 688 400 688
WIRE 256 816 256 688
WIRE 400 864 400 688
WIRE 256 1056 256 896
WIRE 400 1056 400 928
WIRE 400 1056 256 1056
WIRE 752 1056 752 736
WIRE 752 1056 400 1056
WIRE 752 1088 752 1056
FLAG 112 448 0
FLAG 112 -64 Vdd
FLAG -592 336 0
FLAG -592 96 Vdd
FLAG 752 1088 0
FLAG 512 144 V1
FLAG 256 144 Vce
FLAG 1424 416 0
FLAG 1184 80 Vdd
SYMBOL res 96 16 R0
SYMATTR InstName R1
SYMATTR Value 20k
SYMBOL res 432 128 R90
WINDOW 0 0 56 VBottom 2
WINDOW 3 32 56 VTop 2
SYMATTR InstName R2
SYMATTR Value 20k
SYMBOL res 720 128 R90
WINDOW 0 0 56 VBottom 2
WINDOW 3 32 56 VTop 2
SYMATTR InstName R3
SYMATTR Value 20k
SYMBOL res 992 128 R90
WINDOW 0 0 56 VBottom 2
WINDOW 3 32 56 VTop 2
SYMATTR InstName R4
SYMATTR Value 20k
SYMBOL cap 496 192 R0
SYMATTR InstName C1
SYMATTR Value 1µF
SYMBOL cap 800 192 R0
SYMATTR InstName C2
SYMATTR Value 1µF
SYMBOL cap 1072 192 R0
SYMATTR InstName C3
SYMATTR Value 1µF
SYMBOL npn 48 192 R0
SYMATTR InstName Q1
SYMATTR Value BC547C
SYMBOL voltage -592 160 R0
WINDOW 123 0 0 Left 0
WINDOW 39 0 0 Left 0
SYMATTR InstName V1
SYMATTR Value 3
SYMBOL res 240 480 R0
SYMATTR InstName R5
SYMATTR Value 100k
SYMBOL res 240 800 R0
SYMATTR InstName R7
SYMATTR Value 150k
SYMBOL cap 384 864 R0
SYMATTR InstName C4
SYMATTR Value 0.47µ
SYMBOL npn 688 640 R0
SYMATTR InstName Q2
SYMATTR Value BC547C
SYMBOL res 736 464 R0
SYMATTR InstName R6
SYMATTR Value 40k
SYMBOL LED 1216 96 R270
WINDOW 0 72 32 VTop 2
WINDOW 3 0 32 VBottom 2
SYMATTR InstName D1
SYMATTR Value NSPW500BS
SYMATTR Description Diode
SYMATTR Type diode
SYMBOL AutoGenerated\\Si1012R 1344 80 R0
SYMATTR InstName U2
TEXT -624 472 Left 2 !.tran 10s startup
TEXT -624 496 Left 2 ;.step dec param Rt 100k 300k 10
